Version 4
SHEET 1 3776 680
WIRE 16 -720 -160 -720
WIRE 176 -720 16 -720
WIRE 336 -720 176 -720
WIRE 496 -720 336 -720
WIRE 656 -720 496 -720
WIRE 816 -720 656 -720
WIRE 976 -720 816 -720
WIRE 1136 -720 976 -720
WIRE 1296 -720 1136 -720
WIRE 1456 -720 1296 -720
WIRE 1616 -720 1456 -720
WIRE -160 -688 -160 -720
WIRE 176 -688 176 -720
WIRE 336 -688 336 -720
WIRE 496 -688 496 -720
WIRE 656 -688 656 -720
WIRE 816 -688 816 -720
WIRE 976 -688 976 -720
WIRE 1136 -688 1136 -720
WIRE 1296 -688 1296 -720
WIRE 1456 -688 1456 -720
WIRE 1616 -688 1616 -720
WIRE 176 -592 176 -624
WIRE 336 -592 336 -624
WIRE 496 -592 496 -624
WIRE 656 -592 656 -624
WIRE 816 -592 816 -624
WIRE 976 -592 976 -624
WIRE 1136 -592 1136 -624
WIRE 1296 -592 1296 -624
WIRE 1456 -592 1456 -624
WIRE 1616 -592 1616 -624
WIRE 176 -512 176 -528
WIRE 336 -512 336 -528
WIRE 496 -512 496 -528
WIRE 656 -512 656 -528
WIRE 816 -512 816 -528
WIRE 976 -512 976 -528
WIRE 1136 -512 1136 -528
WIRE 1296 -512 1296 -528
WIRE 1456 -512 1456 -528
WIRE 1616 -512 1616 -528
WIRE 176 -416 176 -448
WIRE 336 -416 336 -448
WIRE 496 -416 496 -448
WIRE 656 -416 656 -448
WIRE 816 -416 816 -448
WIRE 976 -416 976 -448
WIRE 1136 -416 1136 -448
WIRE 1296 -416 1296 -448
WIRE 1456 -416 1456 -448
WIRE 1616 -416 1616 -448
WIRE 176 -320 176 -352
WIRE 336 -320 336 -352
WIRE 496 -320 496 -352
WIRE 656 -320 656 -352
WIRE 816 -320 816 -352
WIRE 976 -320 976 -352
WIRE 1136 -320 1136 -352
WIRE 1296 -320 1296 -352
WIRE 1456 -320 1456 -352
WIRE 1616 -320 1616 -352
WIRE 176 -240 176 -256
WIRE 336 -240 336 -256
WIRE 496 -240 496 -256
WIRE 656 -240 656 -256
WIRE 816 -240 816 -256
WIRE 976 -240 976 -256
WIRE 1136 -240 1136 -256
WIRE 1296 -240 1296 -256
WIRE 1456 -240 1456 -256
WIRE 1616 -240 1616 -256
WIRE 176 -160 176 -176
WIRE 336 -144 336 -176
WIRE 496 -144 496 -176
WIRE 656 -144 656 -176
WIRE 816 -144 816 -176
WIRE 976 -144 976 -176
WIRE 1136 -144 1136 -176
WIRE 1296 -144 1296 -176
WIRE 1456 -144 1456 -176
WIRE 1616 -144 1616 -176
WIRE 16 -112 16 -720
WIRE -160 -80 -160 -608
WIRE 176 -64 176 -80
WIRE 176 -64 -48 -64
WIRE 176 -16 176 -64
WIRE 336 -16 336 -64
WIRE 496 -16 496 -64
WIRE 656 -16 656 -64
WIRE 816 -16 816 -64
WIRE 976 -16 976 -64
WIRE 1136 -16 1136 -64
WIRE 1296 -16 1296 -64
WIRE 1456 -16 1456 -64
WIRE 1616 -16 1616 -64
WIRE 16 32 16 -16
WIRE 112 32 16 32
WIRE 272 32 112 32
WIRE 432 32 272 32
WIRE 592 32 432 32
WIRE 752 32 592 32
WIRE 912 32 752 32
WIRE 1072 32 912 32
WIRE 1232 32 1072 32
WIRE 1392 32 1232 32
WIRE 1552 32 1392 32
WIRE -160 160 -160 0
WIRE 176 160 176 80
WIRE 176 160 -160 160
WIRE 336 160 336 80
WIRE 336 160 176 160
WIRE 496 160 496 80
WIRE 496 160 336 160
WIRE 656 160 656 80
WIRE 656 160 496 160
WIRE 816 160 816 80
WIRE 816 160 656 160
WIRE 976 160 976 80
WIRE 976 160 816 160
WIRE 1136 160 1136 80
WIRE 1136 160 976 160
WIRE 1296 160 1296 80
WIRE 1296 160 1136 160
WIRE 1456 160 1456 80
WIRE 1456 160 1296 160
WIRE 1616 160 1616 80
WIRE 1616 160 1456 160
WIRE 176 256 176 160
FLAG 176 256 0
SYMBOL res 160 -176 R0
SYMATTR InstName RREF
SYMATTR Value {rset}
SYMBOL LED 320 -240 R0
SYMATTR InstName D2
SYMATTR Value HVLED
SYMBOL LED 320 -320 R0
SYMATTR InstName D3
SYMATTR Value HVLED
SYMBOL LED 480 -240 R0
SYMATTR InstName D6
SYMATTR Value LVLED
SYMBOL LED 480 -320 R0
SYMATTR InstName D1
SYMATTR Value LVLED
SYMBOL LED 480 -416 R0
SYMATTR InstName D4
SYMATTR Value LVLED
SYMBOL LED 320 -416 R0
SYMATTR InstName D5
SYMATTR Value HVLED
SYMBOL voltage -160 -96 R0
WINDOW 123 0 0 Left 0
WINDOW 39 0 0 Left 0
SYMATTR InstName V1
SYMATTR Value 24
SYMBOL npn 112 -16 R0
SYMATTR InstName QREF
SYMATTR Value TLED
SYMBOL npn 272 -16 R0
SYMATTR InstName Q1
SYMATTR Value TLED
SYMBOL npn 432 -16 R0
SYMATTR InstName Q2
SYMATTR Value TLED
SYMBOL npn -48 -112 R0
SYMATTR InstName QCTRL
SYMATTR Value TCTRL
SYMBOL LED 160 -240 R0
SYMATTR InstName D7
SYMATTR Value REFLED
SYMBOL LED 160 -320 R0
SYMATTR InstName D8
SYMATTR Value REFLED
SYMBOL LED 160 -416 R0
SYMATTR InstName D9
SYMATTR Value REFLED
SYMBOL LED 640 -240 R0
SYMATTR InstName D10
SYMATTR Value AOT-2015
SYMBOL LED 640 -320 R0
SYMATTR InstName D11
SYMATTR Value BADLED
SYMBOL LED 640 -416 R0
SYMATTR InstName D12
SYMATTR Value BADLED
SYMBOL npn 592 -16 R0
SYMATTR InstName Q3
SYMATTR Value TLED
SYMBOL LED 800 -240 R0
SYMATTR InstName D13
SYMATTR Value AOT-2015
SYMBOL LED 800 -320 R0
SYMATTR InstName D14
SYMATTR Value BADLED
SYMBOL LED 800 -416 R0
SYMATTR InstName D15
SYMATTR Value BADLED
SYMBOL npn 752 -16 R0
SYMATTR InstName Q4
SYMATTR Value TLED
SYMBOL res 320 -160 R0
SYMATTR InstName RLED1
SYMATTR Value {rled}
SYMBOL res 480 -160 R0
SYMATTR InstName RLED2
SYMATTR Value {rled}
SYMBOL res 640 -160 R0
SYMATTR InstName RLED3
SYMATTR Value {rled}
SYMBOL res 800 -160 R0
SYMATTR InstName RLED4
SYMATTR Value {rled}
SYMBOL LED 800 -512 R0
SYMATTR InstName D16
SYMATTR Value AOT-2015
SYMBOL LED 800 -592 R0
SYMATTR InstName D17
SYMATTR Value BADLED
SYMBOL LED 800 -688 R0
SYMATTR InstName D18
SYMATTR Value BADLED
SYMBOL LED 640 -512 R0
SYMATTR InstName D19
SYMATTR Value AOT-2015
SYMBOL LED 640 -592 R0
SYMATTR InstName D20
SYMATTR Value BADLED
SYMBOL LED 640 -688 R0
SYMATTR InstName D21
SYMATTR Value BADLED
SYMBOL LED 480 -512 R0
SYMATTR InstName D22
SYMATTR Value LVLED
SYMBOL LED 480 -592 R0
SYMATTR InstName D23
SYMATTR Value LVLED
SYMBOL LED 480 -688 R0
SYMATTR InstName D24
SYMATTR Value LVLED
SYMBOL LED 320 -512 R0
SYMATTR InstName D25
SYMATTR Value HVLED
SYMBOL LED 320 -592 R0
SYMATTR InstName D26
SYMATTR Value HVLED
SYMBOL LED 320 -688 R0
SYMATTR InstName D27
SYMATTR Value HVLED
SYMBOL LED 160 -512 R0
SYMATTR InstName D28
SYMATTR Value AOT-2015
SYMBOL LED 160 -592 R0
SYMATTR InstName D29
SYMATTR Value REFLED
SYMBOL LED 160 -688 R0
SYMATTR InstName D30
SYMATTR Value REFLED
SYMBOL LED 960 -240 R0
SYMATTR InstName D31
SYMATTR Value AOT-2015
SYMBOL LED 960 -320 R0
SYMATTR InstName D32
SYMATTR Value AOT-2015
SYMBOL LED 1120 -240 R0
SYMATTR InstName D33
SYMATTR Value AOT-2015
SYMBOL LED 1120 -320 R0
SYMATTR InstName D34
SYMATTR Value BADLED
SYMBOL LED 1120 -416 R0
SYMATTR InstName D35
SYMATTR Value BADLED
SYMBOL LED 960 -416 R0
SYMATTR InstName D36
SYMATTR Value BADLED
SYMBOL npn 912 -16 R0
SYMATTR InstName Q5
SYMATTR Value TLED
SYMBOL npn 1072 -16 R0
SYMATTR InstName Q6
SYMATTR Value TLED
SYMBOL LED 1280 -240 R0
SYMATTR InstName D37
SYMATTR Value AOT-2015
SYMBOL LED 1280 -320 R0
SYMATTR InstName D38
SYMATTR Value BADLED
SYMBOL LED 1280 -416 R0
SYMATTR InstName D39
SYMATTR Value BADLED
SYMBOL npn 1232 -16 R0
SYMATTR InstName Q7
SYMATTR Value TLED
SYMBOL LED 1440 -240 R0
SYMATTR InstName D40
SYMATTR Value AOT-2015
SYMBOL LED 1440 -320 R0
SYMATTR InstName D41
SYMATTR Value BADLED
SYMBOL LED 1440 -416 R0
SYMATTR InstName D42
SYMATTR Value BADLED
SYMBOL npn 1392 -16 R0
SYMATTR InstName Q8
SYMATTR Value TLED
SYMBOL res 960 -160 R0
SYMATTR InstName RLED5
SYMATTR Value {rled}
SYMBOL res 1120 -160 R0
SYMATTR InstName RLED6
SYMATTR Value {rled}
SYMBOL res 1280 -160 R0
SYMATTR InstName RLED7
SYMATTR Value {rled}
SYMBOL res 1440 -160 R0
SYMATTR InstName RLED8
SYMATTR Value {rled}
SYMBOL LED 1440 -512 R0
SYMATTR InstName D43
SYMATTR Value AOT-2015
SYMBOL LED 1440 -592 R0
SYMATTR InstName D44
SYMATTR Value BADLED
SYMBOL LED 1440 -688 R0
SYMATTR InstName D45
SYMATTR Value BADLED
SYMBOL LED 1280 -512 R0
SYMATTR InstName D46
SYMATTR Value AOT-2015
SYMBOL LED 1280 -592 R0
SYMATTR InstName D47
SYMATTR Value BADLED
SYMBOL LED 1280 -688 R0
SYMATTR InstName D48
SYMATTR Value BADLED
SYMBOL LED 1120 -512 R0
SYMATTR InstName D49
SYMATTR Value AOT-2015
SYMBOL LED 1120 -592 R0
SYMATTR InstName D50
SYMATTR Value BADLED
SYMBOL LED 1120 -688 R0
SYMATTR InstName D51
SYMATTR Value BADLED
SYMBOL LED 960 -512 R0
SYMATTR InstName D52
SYMATTR Value AOT-2015
SYMBOL LED 960 -592 R0
SYMATTR InstName D53
SYMATTR Value BADLED
SYMBOL LED 960 -688 R0
SYMATTR InstName D54
SYMATTR Value BADLED
SYMBOL LED 1600 -240 R0
SYMATTR InstName D55
SYMATTR Value AOT-2015
SYMBOL LED 1600 -320 R0
SYMATTR InstName D56
SYMATTR Value BADLED
SYMBOL LED 1600 -416 R0
SYMATTR InstName D57
SYMATTR Value BADLED
SYMBOL npn 1552 -16 R0
SYMATTR InstName Q9
SYMATTR Value TLED
SYMBOL res 1600 -160 R0
SYMATTR InstName RLED9
SYMATTR Value {rled}
SYMBOL LED 1600 -512 R0
SYMATTR InstName D58
SYMATTR Value AOT-2015
SYMBOL LED 1600 -592 R0
SYMATTR InstName D59
SYMATTR Value BADLED
SYMBOL LED 1600 -688 R0
SYMATTR InstName D60
SYMATTR Value BADLED
SYMBOL res -176 -704 R0
SYMATTR InstName RTOT
SYMATTR Value 0.0001
TEXT -18 184 Left 2 !.dc V1 20 28 0.5
TEXT 272 280 Left 2 !.MODEL TCTRL AKO: 2N2222 (Bf=520)
TEXT 776 192 Left 2 !.MODEL BADLED AKO: AOT-2015 (N=6.4)
TEXT 272 248 Left 2 !.MODEL TLED AKO: 2N2222 (Bf=520)
TEXT 272 200 Left 2 !.param rled=35 rset=35
TEXT 776 216 Left 2 !.MODEL REFLED AKO: AOT-2015 (N=6.4)
TEXT 776 240 Left 2 !.MODEL HVLED AKO: AOT-2015 (N=6.8)
TEXT 776 264 Left 2 !.MODEL LVLED AKO: AOT-2015 (N=6)
