* Z:\home\lu\source\Projects\LightTable\CircuitSimulationSmallTest.asc
RREF N052 N063 {rset}
D2 N043 N053 AOT-2015
D3 N033 N043 AOT-2015
D6 N044 N054 AOT-2015
D1 N034 N044 BADLED
D4 N024 N034 BADLED
D5 N023 N033 BADLED
V1 N062 0 24
QREF N063 N073 0 0 TLED
Q1 N064 N073 0 0 TLED
Q2 N065 N073 0 0 TLED
QCTRL N001 N063 N073 0 MYT
D7 N042 N052 AOT-2015
D8 N032 N042 AOT-2015
D9 N022 N032 BADLED
D10 N045 N055 AOT-2015
D11 N035 N045 BADLED
D12 N025 N035 BADLED
Q3 N066 N073 0 0 TLED
D13 N046 N056 AOT-2015
D14 N036 N046 BADLED
D15 N026 N036 BADLED
Q4 N067 N073 0 0 TLED
RLED1 N053 N064 {rled}
RLED2 N054 N065 {rled}
RLED3 N055 N066 {rled}
RLED4 N056 N067 {rled}
D16 N016 N026 AOT-2015
D17 N006 N016 BADLED
D18 N001 N006 BADLED
D19 N015 N025 AOT-2015
D20 N005 N015 BADLED
D21 N001 N005 BADLED
D22 N014 N024 AOT-2015
D23 N004 N014 BADLED
D24 N001 N004 BADLED
D25 N013 N023 AOT-2015
D26 N003 N013 BADLED
D27 N001 N003 BADLED
D28 N012 N022 AOT-2015
D29 N002 N012 BADLED
D30 N001 N002 BADLED
D31 N047 N057 AOT-2015
D32 N037 N047 AOT-2015
D33 N048 N058 AOT-2015
D34 N038 N048 BADLED
D35 N028 N038 BADLED
D36 N027 N037 BADLED
Q5 N068 N073 0 0 TLED
Q6 N069 N073 0 0 TLED
D37 N049 N059 AOT-2015
D38 N039 N049 BADLED
D39 N029 N039 BADLED
Q7 N070 N073 0 0 TLED
D40 N050 N060 AOT-2015
D41 N040 N050 BADLED
D42 N030 N040 BADLED
Q8 N071 N073 0 0 TLED
RLED5 N057 N068 {rled}
RLED6 N058 N069 {rled}
RLED7 N059 N070 {rled}
RLED8 N060 N071 {rled}
D43 N020 N030 AOT-2015
D44 N010 N020 BADLED
D45 N001 N010 BADLED
D46 N019 N029 AOT-2015
D47 N009 N019 BADLED
D48 N001 N009 BADLED
D49 N018 N028 AOT-2015
D50 N008 N018 BADLED
D51 N001 N008 BADLED
D52 N017 N027 AOT-2015
D53 N007 N017 BADLED
D54 N001 N007 BADLED
D55 N051 N061 AOT-2015
D56 N041 N051 BADLED
D57 N031 N041 BADLED
Q9 N072 N073 0 0 TLED
RLED9 N061 N072 {rled}
D58 N021 N031 AOT-2015
D59 N011 N021 BADLED
D60 N001 N011 BADLED
RTOT N001 N062 0.0001
.model D D
.lib C:\users\lu\Local Settings\Application Data\LTspice\lib\cmp\standard.dio
.model NPN NPN
.model PNP PNP
.lib C:\users\lu\Local Settings\Application Data\LTspice\lib\cmp\standard.bjt
.dc V1 20 28 0.5
.MODEL MYT AKO: 2N2222 (Bf=520)
.MODEL BADLED AKO: AOT-2015 (N=5)
.MODEL TLED AKO: 2N2222 (Bf=520)
.param rled=35 rset=35
.backanno
.end
